Circuit: * C:\Users\Kamov\Desktop\Clear Prototypes\Double_Output_PMT_AMPv2\LTSpice\Draft1.asc

Direct Newton iteration for .op point succeeded.

Date: Sat Oct 08 15:09:27 2022
Total elapsed time: 0.118 seconds.

tnom = 27
temp = 27
method = trap
totiter = 5
traniter = 0
tranpoints = 0
accept = 0
rejected = 0
matrix size = 28
fillins = 24
solver = Normal
Matrix Compiler1:     165 opcodes
Matrix Compiler2: 3.48 KB object code size
